Vpower Vdd Gnd 5V
Vorun In Gnd dc 0 BIT ({0100101100} pw=10n lt=10n ht=10n on=5 rt=0.1n ft=0.1n) AC 0
.tran 100p 100n
.print tran v(In,Gnd) v(Out,Gnd)
.include "C:\Users\Orhun\Desktop\VLSI\VLSI_tech_files\SCN_0.25u_CMOS.md"